/*--------------------------------*- C++ -*----------------------------------*\
| =========                 |                                                 |
| \\      /  F ield         | OpenFOAM: The Open Source CFD Toolbox           |
|  \\    /   O peration     | Version:  v2212                                 |
|   \\  /    A nd           | Website:  www.openfoam.com                      |
|    \\/     M anipulation  |                                                 |
\*---------------------------------------------------------------------------*/
FoamFile
{
    version     2.0;
    format      ascii;
    class       dictionary;
    object      fvSolution;
}
// * * * * * * * * * * * * * * * * * * * * * * * * * * * * * * * * * * * * * //

solvers
{
    "A2.*"
    {
        solver          PBiCGStab;
        preconditioner  DILU;
        tolerance       1e-010;
        relTol          0;   
    }
}

PIMPLE
{
    nNonOrthogonalCorrectors 0;
    nOuterCorrectors 0;
    nCorrectors 0;
}

relaxationFactors
{
    fields
    {
    }
    equations
    {
    }
}


// ************************************************************************* //
